Version 4
SHEET 1 880 680
WIRE 304 64 240 64
WIRE 400 64 384 64
WIRE 400 80 400 64
WIRE 240 112 240 64
WIRE 192 128 64 128
WIRE 64 160 64 128
WIRE 352 208 240 208
WIRE 240 224 240 208
WIRE 64 256 64 240
WIRE 240 320 240 304
FLAG 64 256 0
FLAG 240 320 0
FLAG 400 80 0
FLAG 352 208 out
SYMBOL voltage 64 144 M0
WINDOW 123 0 0 Left 2
WINDOW 39 0 0 Left 2
SYMATTR InstName V1
SYMATTR Value PULSE(0 3.3 0 1f 1f 1 2)
SYMBOL voltage 288 64 R270
WINDOW 0 32 56 VTop 2
WINDOW 3 -32 56 VBottom 2
WINDOW 123 0 0 Left 2
WINDOW 39 0 0 Left 2
SYMATTR InstName V2
SYMATTR Value 3.3
SYMBOL res 224 208 R0
SYMATTR InstName R2
SYMATTR Value 1MEG
SYMBOL pmos 192 208 M180
SYMATTR InstName M1
TEXT 112 264 Left 2 !.tran 10
